*SPEF "IEEE 1481-1998"
*DESIGN "counter"
*DATE "Sat Oct 16 19:57:13 2021"
*VENDOR "Cadence Design Systems, Inc."
*PROGRAM "Innovus"
*VERSION "16.26-s040_1"
*DESIGN_FLOW "PIN_CAP NONE" "NAME_SCOPE LOCAL"
*DIVIDER /
*DELIMITER :
*BUS_DELIMITER []
*T_UNIT 1 NS
*C_UNIT 1 PF
*R_UNIT 1 OHM
*L_UNIT 1 HENRY

// MMMC spef file for corner 'Default_rc_corner'

*NAME_MAP

*1 clk
*2 rst
*3 out[2]
*4 out[1]
*5 out[0]
*6 n_0
*7 n_1
*8 n_2
*9 n_3
*10 n_4
*11 n_5
*12 n_6
*13 g196
*14 g198
*15 out_reg\[0\]
*16 g200
*17 g201
*18 g203
*19 out_reg\[1\]
*20 out_reg\[2\]


*PORTS

*1 I *C 0 0
*2 I *C 0 0
*3 O *C 0 0
*4 O *C 0 0
*5 O *C 0 0


*D_NET *1 0.000971238

*CONN
*I *19:CK I *C 7 9 *L 0.000671 *D DFZRM2RA
*I *20:CK I *C 9 6 *L 0.000712 *D DFM2RA
*I *15:CK I *C 5 6 *L 0.000733 *D DFQM2RA
*P *1 I *C 0 0 *L 0

*CAP
1 *1:1 2.44058e-05
2 *1:2 0.000179722
3 *1:3 2.07562e-05
4 *1:4 0.000188808
5 *19:CK 1.25289e-05
6 *1:7 0.000106915
7 *1:8 2.52642e-05
8 *1:9 0.000107215
9 *1:10 9.78417e-05
10 *1:11 2.90068e-05
11 *1:12 9.81412e-05
12 *20:CK 1.25289e-05
13 *1:15 2.90068e-05
14 *1:16 1.32843e-05
15 *15:CK 1.25289e-05
16 *1 1.32843e-05

*RES
1 *1:16 *1 0.0868923
2 *1:15 *15:CK 0.6
3 *1:15 *1:16 0.311448
4 *1:12 *1:15 0.6
5 *1:11 *20:CK 0.6
6 *1:11 *1:13 0.311448
7 *1:10 *1:12 1.33625
8 *1:9 *1:11 0.6
9 *1:8 *1:10 0.6
10 *1:7 *1:9 1.48472
11 *1:4 *1:8 0.148332
12 *1:4 *1:7 0.6
13 *1:3 *19:CK 0.6
14 *1:3 *1:5 0.311448
15 *1:2 *1:4 2.66998
16 *1:1 *1:3 0.6
17 *1:1 *1:2 0.6
18 *1:0 *1:1 0.311448
*END

*D_NET *2 0.000396939

*CONN
*I *13:B I *C 10 7 *L 0.00106 *D NR2M2R
*I *18:A I *C 8 7 *L 0.000901 *D CKINVM2R
*I *16:C I *C 7 8 *L 0.000966 *D AOI211M2R
*P *2 I *C 0 0 *L 0

*CAP
1 *2:3 0.00011348
2 *2:4 0.00011348
3 *2:5 2.68895e-05
4 *2:6 7.17054e-05
5 *2:8 4.48159e-05
6 *16:C 1.32843e-05
7 *2 1.32843e-05

*RES
1 *16:C *2 0.0868923
2 *2:8 *16:C 0.6
3 *2:6 *2:8 0.744378
4 *2:5 *18:A 0.6
5 *2:5 *2:6 0.446627
6 *2:4 *2:5 0.6
7 *2:3 *2:4 1.52967
8 *2:1 *2:3 0.6
9 *2:1 *13:B 0.6
10 *2:0 *2:1 0.311448
*END

*D_NET *3 0.000788197

*CONN
*I *14:B2 I *C 12 7 *L 0.000993 *D AOI32M2R
*I *20:Q O *C 13 5 *L 0 *D DFM2RA
*I *16:A2 I *C 8 7 *L 0.000939 *D AOI211M2R
*P *3 O *C 0 0 *L 0

*CAP
1 *3:0 3.78266e-05
2 *3:1 5.67399e-05
3 *3:2 8.51099e-05
4 *3:3 3.58527e-05
5 *3:4 2.837e-05
6 *3:5 8.51099e-05
7 *3:6 3.58527e-05
8 *3:7 5.3779e-05
9 *3:8 0.00011348
10 *3:10 5.3779e-05
11 *3:11 0.000104023
12 *3:13 4.9137e-05
13 *3:14 3.58527e-05
14 *3 1.32843e-05

*RES
1 *3:13 *3 0.0868923
2 *3:14 *16:A2 0.6
3 *3:13 *3:14 0.595502
4 *3:11 *3:13 0.6
5 *3:10 *20:Q 0.6
6 *3:8 *3:11 1.40219
7 *3:7 *3:10 0.893253
8 *3:6 *14:B2 0.6
9 *3:5 *3:8 0.127472
10 *3:4 *3:7 0.6
11 *3:3 *3:6 0.595502
12 *3:2 *3:5 1.01978
13 *3:1 *3:4 0.382417
14 *3:1 *3:3 0.6
15 *3:0 *3:2 0.127472
16 *3:0 *3:1 0.382417
*END

*D_NET *4 0.00031339

*CONN
*I *17:B I *C 10 7 *L 0.001 *D MXB2M1RA
*I *19:Q O *C 11 9 *L 0 *D DFZRM2RA
*I *14:A3 I *C 11 7 *L 0.00102 *D AOI32M2R
*P *4 O *C 0 0 *L 0

*CAP
1 *4:0 5.3779e-05
2 *4:1 0.000107558
3 *4:2 1.79263e-05
4 *4:3 2.68895e-05
5 *4:4 6.27422e-05
6 *17:B 1.32843e-05
7 *4:6 1.79263e-05
8 *4 1.32843e-05

*RES
1 *17:B *4 0.0868923
2 *4:6 *14:A3 0.6
3 *4:4 *19:Q 0.6
4 *4:3 *4:6 0.297751
5 *4:2 *17:B 0.6
6 *4:1 *4:4 1.04213
7 *4:1 *4:3 0.148876
8 *4:0 *4:2 0.297751
9 *4:0 *4:1 0.595502
*END

*D_NET *5 0.000621925

*CONN
*I *14:A2 I *C 11 7 *L 0.00107 *D AOI32M2R
*I *17:S I *C 9 7 *L 0.00151 *D MXB2M1RA
*I *16:B I *C 7 7 *L 0.000973 *D AOI211M2R
*I *15:Q O *C 9 6 *L 0 *D DFQM2RA
*P *5 O *C 0 0 *L 0

*CAP
1 *5:2 2.837e-05
2 *5:4 3.78266e-05
3 *5:5 0.000104023
4 *5:6 0.00017022
5 *5:7 7.56532e-05
6 *5:8 3.58527e-05
7 *5:9 3.12107e-05
8 *5:10 1.79263e-05
9 *5:11 3.58527e-05
10 *5:12 1.79263e-05
11 *5:14 3.58527e-05
12 *5:16 1.79263e-05
13 *5 1.32843e-05

*RES
1 *5:9 *5 0.0868923
2 *5:16 *15:Q 0.6
3 *5:14 *5:16 0.297751
4 *5:12 *16:B 0.6
5 *5:11 *5:14 0.297751
6 *5:10 *17:S 0.6
7 *5:9 *5:12 0.297751
8 *5:8 *5:11 0.297751
9 *5:8 *5:10 0.297751
10 *5:7 *5:9 0.6
11 *5:6 *5:8 0.6
12 *5:6 *5:7 1.01978
13 *5:5 *5:6 1.27472
14 *5:4 *5:5 0.127472
15 *5:2 *5:4 0.382417
16 *5:1 *14:A2 0.6
17 *5:1 *5:2 0.6
18 *5:0 *5:1 0.311448
*END

*D_NET *6 0.000277778

*CONN
*I *14:A1 I *C 11 7 *L 0.00111 *D AOI32M2R
*I *20:QB O *C 13 6 *L 0 *D DFM2RA

*CAP
1 *6:2 8.51099e-05
2 *6:4 8.51099e-05
3 *6:5 5.3779e-05
4 *6:6 5.3779e-05

*RES
1 *6:6 *20:QB 0.6
2 *6:5 *6:6 0.893253
3 *6:4 *6:5 0.6
4 *6:2 *6:4 1.14725
5 *6:1 *14:A1 0.6
6 *6:1 *6:2 0.6
7 *6:0 *6:1 0.0741542
*END

*D_NET *7 0.000143411

*CONN
*I *18:Z O *C 8 8 *L 0 *D CKINVM2R
*I *19:D I *C 8 9 *L 0.000891 *D DFZRM2RA

*CAP
1 *7:1 1.79263e-05
2 *7:2 2.68895e-05
3 *7:3 5.3779e-05
4 *7:4 4.48159e-05

*RES
1 *7:4 *19:D 0.6
2 *7:3 *7:4 0.744378
3 *7:2 *7:3 0.148876
4 *7:1 *7:2 0.297751
5 *18:Z *7:1 0.6
*END

*D_NET *8 0.000600291

*CONN
*I *16:A1 I *C 7 7 *L 0.001 *D AOI211M2R
*I *17:A I *C 9 7 *L 0.000766 *D MXB2M1RA
*I *19:QB O *C 12 10 *L 0 *D DFZRM2RA

*CAP
1 *8:2 7.56532e-05
2 *8:4 0.000122937
3 *8:5 5.67399e-05
4 *8:7 0.00011348
5 *8:10 0.000104023
6 *8:11 4.48159e-05
7 *8:12 4.48159e-05
8 *8:13 1.89133e-05
9 *19:QB 1.89133e-05

*RES
1 *8:13 *19:QB 0.254944
2 *8:12 *8:13 0.6
3 *8:11 *8:12 0.744378
4 *8:10 *8:11 0.6
5 *8:7 *8:10 1.40219
6 *8:6 *17:A 0.6
7 *8:6 *8:8 0.311448
8 *8:5 *8:7 0.127472
9 *8:4 *8:6 0.6
10 *8:4 *8:5 0.637361
11 *8:2 *8:4 1.01978
12 *8:1 *16:A1 0.6
13 *8:1 *8:2 0.6
14 *8:0 *8:1 0.311448
*END

*D_NET *9 0.000161337

*CONN
*I *16:Z O *C 7 7 *L 0 *D AOI211M2R
*I *15:D I *C 6 6 *L 0.00102 *D DFQM2RA

*CAP
1 *9:1 1.79263e-05
2 *9:2 2.68895e-05
3 *9:3 6.27422e-05
4 *9:4 5.3779e-05

*RES
1 *9:4 *15:D 0.6
2 *9:3 *9:4 0.893253
3 *9:2 *9:3 0.148876
4 *9:1 *9:2 0.297751
5 *16:Z *9:1 0.6
*END

*D_NET *10 0.000626274

*CONN
*I *19:RB I *C 8 9 *L 0.000946 *D DFZRM2RA
*I *17:Z O *C 9 7 *L 0 *D MXB2M1RA
*I *14:B1 I *C 11 7 *L 0.00112 *D AOI32M2R

*CAP
1 *10:2 5.67399e-05
2 *10:4 0.000160763
3 *10:5 7.17054e-05
4 *10:6 0.000104023
5 *10:7 7.17054e-05
6 *10:8 8.06686e-05
7 *10:10 8.06686e-05

*RES
1 *10:10 *14:B1 0.6
2 *10:8 *10:10 1.33988
3 *10:7 *17:Z 0.6
4 *10:6 *10:8 0.6
5 *10:5 *10:7 1.191
6 *10:4 *10:6 1.40219
7 *10:4 *10:5 0.6
8 *10:2 *10:4 0.764833
9 *10:1 *19:RB 0.6
10 *10:1 *10:2 0.6
11 *10:0 *10:1 0.311448
*END

*D_NET *11 0.00019719

*CONN
*I *14:Z O *C 12 7 *L 0 *D AOI32M2R
*I *13:A I *C 11 7 *L 0.00107 *D NR2M2R

*CAP
1 *11:1 1.79263e-05
2 *11:2 6.27422e-05
3 *11:3 8.06686e-05
4 *11:4 3.58527e-05

*RES
1 *11:4 *13:A 0.6
2 *11:3 *11:4 0.595502
3 *11:2 *11:3 0.744378
4 *11:1 *11:2 0.297751
5 *14:Z *11:1 0.6
*END

*D_NET *12 0.000125484

*CONN
*I *13:Z O *C 10 8 *L 0 *D NR2M2R
*I *20:D I *C 10 6 *L 0.00105 *D DFM2RA

*CAP
1 *12:1 6.27422e-05
2 *12:2 6.27422e-05

*RES
1 *12:2 *20:D 0.6
2 *12:1 *12:2 1.04213
3 *13:Z *12:1 0.6
*END

